tests/fuzzer/corpus_json/21_random_037.json
{
  "version": "1.0",
  "type": "input",
  "is_batch": false,
  "attributes": {},
  "data": {
    "node": [
      {
        "id": 0,
        "u_rated": 380000.0
      },
      {
        "id": 1,
        "u_rated": 380000.0
      },
      {
        "id": 2,
        "u_rated": 380000.0
      },
      {
        "id": 3,
        "u_rated": 380000.0
      },
      {
        "id": 4,
        "u_rated": 380000.0
      },
      {
        "id": 5,
        "u_rated": 380000.0
      },
      {
        "id": 6,
        "u_rated": 380000.0
      },
      {
        "id": 7,
        "u_rated": 380000.0
      },
      {
        "id": 8,
        "u_rated": 380000.0
      },
      {
        "id": 9,
        "u_rated": 380000.0
      },
      {
        "id": 10,
        "u_rated": 380000.0
      },
      {
        "id": 11,
        "u_rated": 380000.0
      }
    ],
    "source": [
      {
        "id": 12,
        "node": 0,
        "status": 1,
        "u_ref": 1.0235632697722805,
        "u_ref_angle": 0.0,
        "sk": 91693447.81875592,
        "rx_ratio": 0.4209599522754781,
        "z01_ratio": 1.0
      }
    ],
    "line": [
      {
        "id": 13,
        "from_node": 0,
        "to_node": 1,
        "from_status": 1,
        "to_status": 1,
        "r1": 2.575088628956747,
        "x1": 3.1551898264783826,
        "c1": 3.692298340629185e-07,
        "tan1": 0.0,
        "r0": 0.3,
        "x0": 0.3,
        "c0": 1e-09,
        "tan0": 0.0,
        "i_n": 532.7384357990325
      },
      {
        "id": 14,
        "from_node": 1,
        "to_node": 2,
        "from_status": 1,
        "to_status": 1,
        "r1": 0.5392834165136595,
        "x1": 3.4147496691664827,
        "c1": 6.006683617497798e-07,
        "tan1": 0.0,
        "r0": 0.3,
        "x0": 0.3,
        "c0": 1e-09,
        "tan0": 0.0,
        "i_n": 289.10527762784096
      },
      {
        "id": 15,
        "from_node": 2,
        "to_node": 3,
        "from_status": 1,
        "to_status": 1,
        "r1": 1.8928642188409954,
        "x1": 3.680657685668357,
        "c1": 4.4387744474707366e-07,
        "tan1": 0.0,
        "r0": 0.3,
        "x0": 0.3,
        "c0": 1e-09,
        "tan0": 0.0,
        "i_n": 960.0199029011853
      },
      {
        "id": 16,
        "from_node": 3,
        "to_node": 4,
        "from_status": 1,
        "to_status": 1,
        "r1": 4.856279824037411,
        "x1": 4.191813023742714,
        "c1": 9.102750132312587e-08,
        "tan1": 0.0,
        "r0": 0.3,
        "x0": 0.3,
        "c0": 1e-09,
        "tan0": 0.0,
        "i_n": 84.4011058526655
      },
      {
        "id": 17,
        "from_node": 4,
        "to_node": 5,
        "from_status": 1,
        "to_status": 1,
        "r1": 1.4429299134650337,
        "x1": 1.8055353182640232,
        "c1": 7.049528914120153e-07,
        "tan1": 0.0,
        "r0": 0.3,
        "x0": 0.3,
        "c0": 1e-09,
        "tan0": 0.0,
        "i_n": 828.6175999187909
      },
      {
        "id": 18,
        "from_node": 5,
        "to_node": 6,
        "from_status": 1,
        "to_status": 1,
        "r1": 2.813121727338455,
        "x1": 3.195955332561673,
        "c1": 5.730797646226705e-07,
        "tan1": 0.0,
        "r0": 0.3,
        "x0": 0.3,
        "c0": 1e-09,
        "tan0": 0.0,
        "i_n": 43.71602907048005
      },
      {
        "id": 19,
        "from_node": 6,
        "to_node": 7,
        "from_status": 1,
        "to_status": 1,
        "r1": 2.6333168752267717,
        "x1": 1.0662190804331306,
        "c1": 4.169628401325784e-07,
        "tan1": 0.0,
        "r0": 0.3,
        "x0": 0.3,
        "c0": 1e-09,
        "tan0": 0.0,
        "i_n": 18.69620045649031
      },
      {
        "id": 20,
        "from_node": 7,
        "to_node": 8,
        "from_status": 1,
        "to_status": 1,
        "r1": 3.2789073701995477,
        "x1": 4.551115757260385,
        "c1": 6.861090441910423e-08,
        "tan1": 0.0,
        "r0": 0.3,
        "x0": 0.3,
        "c0": 1e-09,
        "tan0": 0.0,
        "i_n": 584.2660747663031
      },
      {
        "id": 21,
        "from_node": 8,
        "to_node": 9,
        "from_status": 1,
        "to_status": 1,
        "r1": 0.11740529253717658,
        "x1": 1.7593650343828422,
        "c1": 1.5928580478498277e-07,
        "tan1": 0.0,
        "r0": 0.3,
        "x0": 0.3,
        "c0": 1e-09,
        "tan0": 0.0,
        "i_n": 861.9761300197528
      },
      {
        "id": 22,
        "from_node": 9,
        "to_node": 10,
        "from_status": 1,
        "to_status": 1,
        "r1": 3.640133888032472,
        "x1": 4.482675863138332,
        "c1": 2.179641107905381e-07,
        "tan1": 0.0,
        "r0": 0.3,
        "x0": 0.3,
        "c0": 1e-09,
        "tan0": 0.0,
        "i_n": 721.7105032388031
      },
      {
        "id": 23,
        "from_node": 10,
        "to_node": 11,
        "from_status": 1,
        "to_status": 1,
        "r1": 3.4974851171391936,
        "x1": 2.5534149501258785,
        "c1": 9.161938153335088e-07,
        "tan1": 0.0,
        "r0": 0.3,
        "x0": 0.3,
        "c0": 1e-09,
        "tan0": 0.0,
        "i_n": 628.676977169877
      }
    ],
    "sym_load": [
      {
        "id": 24,
        "node": 1,
        "status": 1,
        "type": 2,
        "p_specified": -59280.40820175884,
        "q_specified": -7137.1005158077905
      },
      {
        "id": 25,
        "node": 2,
        "status": 1,
        "type": 2,
        "p_specified": -90342.73410029012,
        "q_specified": -1018.6682485088186
      },
      {
        "id": 26,
        "node": 3,
        "status": 1,
        "type": 0,
        "p_specified": -46649.487840279915,
        "q_specified": -5217.197673291461
      },
      {
        "id": 27,
        "node": 4,
        "status": 1,
        "type": 0,
        "p_specified": -31774.036063751046,
        "q_specified": -9410.9436723777
      },
      {
        "id": 28,
        "node": 6,
        "status": 1,
        "type": 0,
        "p_specified": 25622.390964253893,
        "q_specified": 3154.862410591373
      },
      {
        "id": 29,
        "node": 8,
        "status": 1,
        "type": 0,
        "p_specified": 15306.447714284426,
        "q_specified": 872.5416478694206
      },
      {
        "id": 30,
        "node": 9,
        "status": 1,
        "type": 0,
        "p_specified": -77609.01496626981,
        "q_specified": -6682.479913684412
      },
      {
        "id": 31,
        "node": 10,
        "status": 1,
        "type": 2,
        "p_specified": 83182.13922569974,
        "q_specified": -9830.31058947062
      },
      {
        "id": 32,
        "node": 11,
        "status": 1,
        "type": 2,
        "p_specified": 67298.18292557332,
        "q_specified": -5515.539086762802
      }
    ],
    "shunt": [
      {
        "id": 33,
        "node": 0,
        "status": 1,
        "g1": 4.463733532754383e-05,
        "b1": -8.650709510679062e-05,
        "g0": 0.0001,
        "b0": 0.0001
      }
    ]
  }
}